/*--------------------------------*- C++ -*----------------------------------*\
| =========                 |                                                 |
| \\      /  F ield         | OpenFOAM: The Open Source CFD Toolbox           |
|  \\    /   O peration     | Version:  1.6                                   |
|   \\  /    A nd           | Web:      www.OpenFOAM.org                      |
|    \\/     M anipulation  |                                                 |
\*---------------------------------------------------------------------------*/
FoamFile
{
    version     2.0;
    format      ascii;
    class       dictionary;
    location    "constant";
    object      kineticTheoryProperties;
}
// * * * * * * * * * * * * * * * * * * * * * * * * * * * * * * * * * * * * * //

kineticTheory   off;

equilibrium     on;

e               e [ 0 0 0 0 0 0 0 ] 0.8;

alphaMax        alphaMax [ 0 0 0 0 0 0 0 ] 0.63;

alphaMinFriction alphaMinFriction [ 0 0 0 0 0 0 0 ] 0.61;

Fr              Fr [ 1 -1 -2 0 0 0 0 ] 0.05;

eta             eta [ 0 0 0 0 0 0 0 ] 2;

p               p [ 0 0 0 0 0 0 0 ] 5;

phi             phi [ 0 0 0 0 0 0 0 ] 30;

viscosityModel  Gidaspow;

conductivityModel Gidaspow;

granularPressureModel Lun;

frictionalStressModel Schaeffer;

radialModel     CarnahanStarling;

HrenyaSinclairCoeffs
{
    L               L [ 0 1 0 0 0 0 0 ] 0.0005;
}


// ************************************************************************* //
