FoamFile
{
    version         2.0; 
    format          ascii;

    root            "";
    case            "";
    instance        "";
    local           "";

    class           dictionary;
    object          blockMeshDict;
}

// * * * * * * * * * * * * * * * * * * * * * * * * * * * * * * * * * * * * * //
meshGenApp blockMesh;

convertToMeters 1.0;

vertices        
(
    (0   0     0)
    (0.05 0     0)
    (0.05 0     0.001)
    (0   0     0.001)
    (0   0.2   0)
    (0.05 0.2   0)
    (0.05 0.2   0.001)
    (0   0.2   0.001)
);

//          7 ---------- 6
//         /|           /|
//        / |          / |   z
//       3 ---------- 2  |   ^ 
//       |  |         |  |   |   y
//       |  4 --------|- 5   |  /
//       | /          | /    | /
//       |/           |/     |/
//       0 ---------- 1      -----> x

blocks          
(
    hex (0 1 5 4 3 2 6 7) (10 40 1) simpleGrading (1 1 1)
);


patches         
(
    patch outlet
    (
        (4 7 6 5)
    )

    wall inlet
    (
        (0 1 2 3)
    )

    wall walls
    (
        (1 5 6 2)
        (0 3 7 4)
    )

    empty frontAndBackPlanes
    (
        (3 2 6 7)
        (0 4 5 1)
    )
);


// ************************************************************************* //
